<?xml version="1.0" encoding="UTF-8"?>

<!-- generated on 2026-04-04T16:39:22.722990+08:00 by Eclipse SUMO sumo 1.26.0
-->

<sumoConfiguration xmlns:xsi="http://www.w3.org/2001/XMLSchema-instance" xsi:noNamespaceSchemaLocation="http://sumo.dlr.de/xsd/sumoConfiguration.xsd">

    <input>
        <net-file value="network.net.xml"/>
        <route-files value="demands.rou.xml"/>
        <additional-files value="additionals.add.xml"/>
    </input>

</sumoConfiguration>
