<?xml version="1.0" encoding="UTF-8"?>

<!-- generated on 2026-03-29T19:23:42.256771+08:00 by Eclipse SUMO netedit 1.26.0
<neteditConfiguration xmlns:xsi="http://www.w3.org/2001/XMLSchema-instance" xsi:noNamespaceSchemaLocation="http://sumo.dlr.de/xsd/neteditConfiguration.xsd">

    <input>
        <sumocfg-file value="C:\Users\rohb\Documents\Thesis\Multi-Factor-Traffic-Solution\v1\sumoFiles\network.sumocfg"/>
        <additional-files value="C:\Users\rohb\Documents\Thesis\Multi-Factor-Traffic-Solution\v1\sumoFiles\additionals.add.xml"/>
        <route-files value="C:\Users\rohb\Documents\Thesis\Multi-Factor-Traffic-Solution\v1\sumoFiles\network.rou.xml"/>
        <sumo-net-file value="C:\Users\rohb\Documents\Thesis\Multi-Factor-Traffic-Solution\v1\sumoFiles\network.net.xml"/>
    </input>

    <output>
        <tls-file value="C:\Users\rohb\Documents\Thesis\Multi-Factor-Traffic-Solution\v1\sumoFiles\traffic.tll.xml"/>
    </output>

    <processing>
        <geometry.min-radius.fix.railways value="false"/>
        <geometry.avoid-overlap value="false"/>
        <geometry.max-grade.fix value="false"/>
        <offset.disable-normalization value="true"/>
        <lefthand value="0"/>
    </processing>

    <junctions>
        <no-internal-links value="false"/>
        <no-turnarounds value="true"/>
        <junctions.corner-detail value="5"/>
        <junctions.limit-turn-speed value="5.50"/>
        <rectangular-lane-cut value="0"/>
    </junctions>

    <pedestrian>
        <walkingareas value="0"/>
    </pedestrian>

    <netedit>
        <new-network value="false"/>
    </netedit>

</neteditConfiguration>
-->

<additional xmlns:xsi="http://www.w3.org/2001/XMLSchema-instance" xsi:noNamespaceSchemaLocation="http://sumo.dlr.de/xsd/additional_file.xsd">
    <tlLogic id="main_tl" type="static" programID="0" offset="0">
        <phase duration="60" state="GGGGGrrrrrrrrrrrrrrrrrrrrrrrrr" name="southbound"/>
        <phase duration="60" state="rrrrrGGGGGGrrrrrrrrrrrrrrrrrrr" name="brudger"/>
        <phase duration="60" state="rrrrrrrrrrrGGGGGrrrrrrrrrrrrrr" name="northbound"/>
        <phase duration="60" state="rrrrrrrrrrrrrrrrGGGGGGrrrrrrrr" name="estanislao"/>
        <phase duration="60" state="rrrrrrrrrrrrrrrrrrrrrrGGGGGGrr" name="cityhall"/>
        <phase duration="30" state="rrrrrrrrrrrrrrrrrrrrrrrrrrrrGG" name="pedestrian"/>
    </tlLogic>
</additional>
